@<TRIPOS>MOLECULE
HEM
   73    80     1     0     1 
SMALL
USER_CHARGES
@<TRIPOS>ATOM
  1 FE     -3.965000  -83.230000  186.014000 FE    1 HEM     0.995988 ****
  2 NA     -3.130000  -84.602000  184.675000 NP    1 HEM    -0.503711 ****
  3 C1A    -3.885000  -85.157000  183.676000 CC    1 HEM     0.222851 ****
  4 C2A    -3.312000  -86.452000  183.347000 CB    1 HEM    -0.097998 ****
  5 CAA    -3.871000  -87.417000  182.277000 CT    1 HEM    -0.015817 ****
  6 HP71   -3.179970  -88.236963  182.081453 HC    1 HEM     0.028747 ****
  7 HP72   -4.074046  -86.884265  181.347987 HC    1 HEM     0.028747 ****
  8 CBA    -5.184000  -87.998000  182.806000 CT    1 HEM    -0.040936 ****
  9 HP73   -5.949004  -87.231455  182.682393 HC    1 HEM    -0.025896 ****
 10 HP74   -5.062869  -88.222126  183.865809 HC    1 HEM    -0.025896 ****
 11 CGA    -5.601000  -89.249000  182.071000 C     1 HEM     0.705141 ****
 12 O1A    -6.219000  -90.135000  182.718000 O2    1 HEM    -0.718698 ****
 13 O2A    -5.340000  -89.367000  180.846000 O2    1 HEM    -0.718698 ****
 14 C3A    -2.242000  -86.644000  184.140000 CB    1 HEM     0.109935 ****
 15 CMA    -1.310000  -87.884000  184.175000 CT    1 HEM    -0.374896 ****
 16 HM81   -0.847306  -88.019109  183.197370 HC    1 HEM     0.099818 ****
 17 HM82   -0.534251  -87.735018  184.926077 HC    1 HEM     0.099818 ****
 18 HM83   -1.892780  -88.770216  184.426174 HC    1 HEM     0.099818 ****
 19 C4A    -2.113000  -85.473000  184.993000 CC    1 HEM     0.117625 ****
 20 CHB    -1.153000  -85.230000  185.954000 CD    1 HEM    -0.207241 ****
 21 HDM    -0.209648  -85.755820  185.953126 HC    1 HEM     0.131087 ****
 22 C1B    -1.267000  -84.326000  186.995000 CC    1 HEM     0.101764 ****
 23 NB     -2.320000  -83.451000  187.193000 NO    1 HEM    -0.554340 ****
 24 C2B    -0.307000  -84.128000  188.067000 CB    1 HEM     0.166631 ****
 25 CMB     1.020000  -84.916000  188.210000 CT    1 HEM    -0.364883 ****
 26 HM11    1.639106  -84.749044  187.328562 HC    1 HEM     0.094558 ****
 27 HM12    1.552469  -84.573938  189.097452 HC    1 HEM     0.094558 ****
 28 HM13    0.802968  -85.979969  188.304693 HC    1 HEM     0.094558 ****
 29 C3B    -0.780000  -83.168000  188.880000 CB    1 HEM    -0.172161 ****
 30 CAB    -0.135000  -82.599000  190.172000 CY    1 HEM    -0.035306 ****
 31 HV2    -0.798148  -82.307840  190.973162 HC    1 HEM     0.101480 ****
 32 CBB     1.188000  -82.463000  190.316000 CX    1 HEM    -0.402383 ****
 33 HVC2    1.851150  -82.754158  189.514839 HC    1 HEM     0.145959 ****
 34 HVT2    1.592948  -82.062046  191.233417 HC    1 HEM     0.145959 ****
 35 C4B    -2.058000  -82.733000  188.349000 CC    1 HEM     0.338133 ****
 36 CHC    -2.860000  -81.760000  188.906000 CD    1 HEM    -0.414870 ****
 37 HAM    -2.590232  -81.227201  189.805861 HC    1 HEM     0.154806 ****
 38 C1C    -4.088000  -81.325000  188.450000 CC    1 HEM     0.232508 ****
 39 NC     -4.695000  -81.709000  187.278000 NP    1 HEM    -0.556237 ****
 40 C2C    -4.962000  -80.376000  189.109000 CB    1 HEM     0.076180 ****
 41 CMC    -4.644000  -79.706000  190.463000 CT    1 HEM    -0.222970 ****
 42 HM31   -3.719235  -79.135275  190.378254 HC    1 HEM     0.057457 ****
 43 HM32   -5.459308  -79.036978  190.738286 HC    1 HEM     0.057457 ****
 44 HM33   -4.528614  -80.472024  191.229808 HC    1 HEM     0.057457 ****
 45 C3C    -6.058000  -80.216000  188.350000 CB    1 HEM    -0.126220 ****
 46 CAC    -7.282000  -79.305000  188.608000 CY    1 HEM    -0.022212 ****
 47 HV4    -7.573762  -78.624724  187.821553 HC    1 HEM     0.101291 ****
 48 CBC    -7.970000  -79.338000  189.751000 CX    1 HEM    -0.438664 ****
 49 HVC4   -7.678239  -80.018274  190.537449 HC    1 HEM     0.159058 ****
 50 HVT4   -8.818556  -78.684433  189.889574 HC    1 HEM     0.159058 ****
 51 C4C    -5.902000  -81.053000  187.179000 CC    1 HEM     0.258391 ****
 52 CHD    -6.786000  -81.180000  186.139000 CD    1 HEM    -0.292360 ****
 53 HBM    -7.768235  -80.731817  186.111690 HC    1 HEM     0.132920 ****
 54 C1D    -6.559000  -81.888000  184.980000 CC    1 HEM     0.244861 ****
 55 ND     -5.679000  -82.962000  184.843000 NO    1 HEM    -0.641098 ****
 56 C2D    -7.199000  -81.638000  183.708000 CB    1 HEM     0.036693 ****
 57 CMD    -8.235000  -80.553000  183.345000 CT    1 HEM    -0.341727 ****
 58 HM51   -7.805154  -79.566631  183.519379 HC    1 HEM     0.098783 ****
 59 HM52   -8.509198  -80.648710  182.294402 HC    1 HEM     0.098783 ****
 60 HM53   -9.123315  -80.676339  183.964504 HC    1 HEM     0.098783 ****
 61 C3D    -6.636000  -82.697000  182.760000 CB    1 HEM    -0.175638 ****
 62 C4D    -5.699000  -83.474000  183.549000 CC    1 HEM     0.339176 ****
 63 CHA    -4.972000  -84.553000  183.090000 CD    1 HEM    -0.287129 ****
 64 HGM    -5.252765  -85.040456  182.168069 HC    1 HEM     0.242028 ****
 65 CAD    -6.960000  -82.839000  181.259000 CT    1 HEM    -0.022375 ****
 66 HP61   -7.867968  -82.334896  180.927983 HC    1 HEM     0.049092 ****
 67 HP62   -6.972017  -83.872484  180.912782 HC    1 HEM     0.049092 ****
 68 CBD    -5.752000  -82.129000  180.642000 CT    1 HEM    -0.107711 ****
 69 HP63   -4.879241  -82.710043  180.939962 HC    1 HEM     0.012409 ****
 70 HP64   -5.695983  -81.135782  181.087511 HC    1 HEM     0.012409 ****
 71 CGD    -5.785000  -82.006000  179.147000 C     1 HEM     0.670534 ****
 72 O1D    -5.777000  -80.843000  178.653000 O2    1 HEM    -0.707165 ****
 73 O2D    -5.801000  -83.061000  178.456000 O2    1 HEM    -0.707165 ****
@<TRIPOS>BOND
    1    71    72 1
    2    71    73 1
    3    68    69 1
    4    68    70 1
    5    68    71 1
    6    65    66 1
    7    65    67 1
    8    65    68 1
    9    63    64 1
   10    62    63 1
   11    61    62 1
   12    61    65 1
   13    57    58 1
   14    57    59 1
   15    57    60 1
   16    56    57 1
   17    56    61 1
   18    55    62 1
   19    54    55 1
   20    54    56 1
   21    52    53 1
   22    52    54 1
   23    51    52 1
   24    48    49 1
   25    48    50 1
   26    46    47 1
   27    46    48 1
   28    45    46 1
   29    45    51 1
   30    41    42 1
   31    41    43 1
   32    41    44 1
   33    40    41 1
   34    40    45 1
   35    39    51 1
   36    38    39 1
   37    38    40 1
   38    36    37 1
   39    36    38 1
   40    35    36 1
   41    32    33 1
   42    32    34 1
   43    30    31 1
   44    30    32 1
   45    29    30 1
   46    29    35 1
   47    25    26 1
   48    25    27 1
   49    25    28 1
   50    24    25 1
   51    24    29 1
   52    23    35 1
   53    22    23 1
   54    22    24 1
   55    20    21 1
   56    20    22 1
   57    19    20 1
   58    15    16 1
   59    15    17 1
   60    15    18 1
   61    14    15 1
   62    14    19 1
   63    11    12 1
   64    11    13 1
   65     8     9 1
   66     8    10 1
   67     8    11 1
   68     5     6 1
   69     5     7 1
   70     5     8 1
   71     4     5 1
   72     4    14 1
   73     3     4 1
   74     3    63 1
   75     2     3 1
   76     2    19 1
   77     1     2 1
   78     1    23 1
   79     1    39 1
   80     1    55 1
@<TRIPOS>SUBSTRUCTURE
      1  HEM              1 ****               0 ****  **** 
